Circuit: * C:\Users\hamza\OneDrive\Documents\2cf3\assignment 4\exercise2.asc

WARNING: Node N004 is floating.

Direct Newton iteration for .op point succeeded.

Date: Mon Mar 13 04:50:32 2023
Total elapsed time: 0.068 seconds.

tnom = 27
temp = 27
method = modified trap
totiter = 2285
traniter = 2281
tranpoints = 1140
accept = 1122
rejected = 18
matrix size = 5
fillins = 0
solver = Normal
Avg thread counts: 1.3/1.6/1.6/1.3
Matrix Compiler1: 150 bytes object code size  0.1/0.1/[0.1]
Matrix Compiler2: off  [0.0]/0.1/0.1

