Circuit: * C:\Users\hamza\OneDrive\Documents\2cf3\assignment 4\exercise1.asc

WARNING: Node N004 is floating.

Direct Newton iteration for .op point succeeded.

Date: Mon Mar 13 03:35:22 2023
Total elapsed time: 0.046 seconds.

tnom = 27
temp = 27
method = modified trap
totiter = 2268
traniter = 2264
tranpoints = 1132
accept = 1118
rejected = 14
matrix size = 7
fillins = 0
solver = Normal
Avg thread counts: 1.3/1.6/1.6/1.3
Matrix Compiler1:      12 opcodes  0.1/[0.1]/0.1
Matrix Compiler2: off  [0.1]/0.1/0.1

